316
 energy: -54.801267851929 gnorm: 0.000493476039 xtb: 6.5.1 (conda-forge)
H           10.84924722483411        8.24539928757920        0.23246714778585
H           -1.54034191281807       13.58479673416492        7.72918071649347
H            0.20858323041064       13.39877294101307        7.82024634350244
H           -1.50651831625469        8.71142233455413        5.79975124045826
H           -1.24383417075397        7.77724264121401        8.05873098368429
H           -0.51716703722659       11.66351093037663        9.58450101855738
H           -3.48586181617468       13.08289510970555        3.10589188674814
H            0.24935145164953       11.39212070272288        2.03383182764048
H            0.49300113737443       10.48603040258968        4.30624393815791
H           -3.64584153966942       13.29999569280560        5.92209138479570
H           -0.59962639911468       13.31787981822454        6.26145556738006
H           -3.49432456047377       11.65398682910025        6.53664078852698
H           -3.33633679729362        4.03719539581748        8.48882127602190
H           -2.86004124154823        3.72546066375869       10.15796485516221
H           -3.55504382234954        5.28094776201258        9.71151637860546
H            0.95359297087050        5.01459685500510        6.78968856504642
H            1.99833510029039        6.46461417289381        8.47820265769316
H           -1.41607342671405        6.04666409102137       10.95345991893791
H           -2.23051820063290        0.56098806798049        6.25821670863397
H           -2.83446603410010        3.95413965920935        3.79205922854083
H           -1.80496672194775        5.38496997675763        5.50585284254203
H           -4.58387388437127       11.99552462180913        5.20001607714746
H           -1.86808995384831        1.42065085623623        8.94634917852881
H            6.54817179665374        5.42862834253802       -1.52164994669199
H            4.33971235587207        1.04065925381876        2.82578741383840
H           -4.96189429514959       -1.91847133767484        3.87017792312843
H           -0.72320752608877       -2.77353314550582        6.17263288031872
H            0.28592041902124       -0.87165071938634        4.80577459916678
H           -1.19655639544303       -3.63660300122367       -1.43443602805356
H           -1.55594978532650       -4.64396176458981        0.78881416688236
H           -2.12406736305714       -3.17385720393441        2.70166435830514
H           -1.39442159795360       -1.20351828932609       -1.72374739861604
H           -1.87051039372899        1.07244209875311       -0.67696644416608
H           11.51725073707209        1.72195355793608        1.70800578339565
H            8.07199029188829        6.36580527127994       -3.33864730151646
H           11.71522136904266        3.01753946579894       -0.38233188207772
H           10.00042897011597        2.48700037741757        3.48477036688120
H            8.32267420909858        4.22316518191968        4.30373172725869
H           12.62968933446355        9.69135319568669        3.70179505182930
H           13.15079302560979        7.30837352445949        3.33218788582004
H           11.39444712943128        5.81713016722652        2.41872392685500
H           10.38819061562758       10.55159229022218        3.17424901528509
H            8.03860876813077       10.08721422056006        2.29911182293063
H           10.09139287080317        7.64143467262492       -3.91991151551230
H           11.49779011589429        8.59903289146217       -2.13330097391095
H           10.37829691070453        5.08712843041860       -0.64990090728285
H           -0.42169804105092        2.42916705133666        8.91094716726503
H           -0.42820261931759        0.87379574498540        8.09181808924288
H            6.29213582477255        6.43428550989318        8.17318953241940
H            2.90079250505352       13.24271693471730        0.04248246910478
H            1.27791272104281        8.12466026596742        0.49328053814706
H           -0.96161338074567        8.90461465947545       -0.15615418523278
H            0.62653641963131       12.73106378755040       -1.04794486403163
H            6.59335191802585        8.58812460032614       -0.83632346107981
H            5.37539617018016        8.62434053753802        3.22276406161860
H            3.14985565879143        9.42282114660947        2.54931133649780
H            4.93618864261350       10.20785143343408       -2.36590459110944
H            3.27858507879578        9.64507237010112       -2.15679634494520
H            3.45621867778886       12.47558400869803       -1.44236993328750
H            4.55603722568466        8.49474730935500       -2.52551538846115
H            3.19532585702278        0.22406996668962        0.12278104731631
H            1.91183684724168        1.05024074235152       -0.75576187493983
H            2.10999482485842        3.64750707368605        3.95078704146919
H            0.16794484254692        2.30770653702293        4.64207479923247
H            0.55434333816732       -0.05964614435878        1.14838042502787
H            7.01782341194313        3.24428076591718        1.49956538671912
H            4.41006406481393        6.46067846466779        0.59735830168351
H            2.48381649747579        5.09067986633413        1.27334371408712
H            5.51002387242759        0.81674223067686        1.52556335784555
H            3.34843787950712        1.93728186016211       -0.26685895185832
H            4.05554466136135       11.91975843439050        0.12036215564124
H           -6.05280906573595        4.66696521092634        1.95650005024956
H           -5.50293032703081        6.18216243815025        1.25514754809900
H            6.60818346696568        7.59280158669276        9.46487958681885
H            5.55617801217838        6.21021540995917        9.75357712231631
H            3.03845173737556        8.95728728395634        5.87086033559714
H            1.56737278489048        9.85809545794266        7.62267421678442
H            4.04447162836633        8.12944086237473       10.59515340870315
H            8.32592803576752        7.95199720594749        4.72638191491993
H            5.32197334372401        5.13305573796565        3.73201401414609
H            3.88199694624768        6.03911074960379        5.50687971290929
H            7.86943510445555        8.90522041514221        7.36653387117821
H            6.28467821526560        9.67672815852106        7.30695083774944
H            7.47023722611422       10.00745426506636        6.05203909036510
H           -3.49554665305724        5.64114539777039       -1.38274269849447
H           -4.93846921616834        6.60545537256504       -1.69624228546477
H           -3.39356290598844        7.06814107081864       -2.40406199784000
H           -2.50928777372167        7.36933726326904        2.89352052910942
H           -2.82693303409352        9.79915728638578        2.69332775387531
H           -4.11357177941277        9.30354053397958       -1.31394109403575
H           -4.67899331574235        2.56093577632091        1.33749159583346
H           -0.48360979104849        3.15663513182991        1.27781926064970
H           -0.82942720648561        5.58061128416593        1.05562164802280
H           -5.95642284515278        4.83876703481689        0.20616367052716
H           -4.83286184100204       -3.72772581089179        5.55924432496526
H           -2.68940479379201       -4.14923481717171        6.70587529114972
H            6.02689918757675        1.46218597714799        3.08050210098686
H            0.12550569476376       16.26199850970710       -0.23623910002224
H           -1.50849892992231       10.30323625160023       -2.96260825164114
H           -3.37175374387218       10.49964113735850       -4.69227939856871
H           -5.75037661870786       13.37397678732676       -1.51743937669534
H           -6.77511307368761       12.87555153967268       -3.71833355650957
H           -5.56192864530068       11.43068856322804       -5.30817126172657
H           -5.56565495700646       11.06297371067451        1.67106819522051
H           -6.98203990969401       13.15285079207541        2.03362846104545
H           -3.58468966669373       15.65042339769795       -0.46022832360180
H           -5.57271796051655       16.83932293686181        0.42126561492691
H           -7.27704694164450       15.56617340646277        1.67067672201160
H           -3.89066239364749        8.06541614222975       12.73417026522851
H           -0.37622870556355       14.46331374170186        1.50067753990101
H           -1.24219330857054        7.04820923644556       15.91668141013578
H           -2.98103875359318       13.95286630762598       -3.23903584777156
H           -0.28301709536633       17.16745970832404       -2.48481209414348
H            2.27280990229607        5.58085819686282       11.52015579664579
H            3.86186795130656        5.90415245545430       13.48812332008594
H            2.21925978452650       10.50848690490199       13.80602843215002
H            3.94044068569052        9.71278582338702       15.40221848799629
H            4.75366243315006        7.38980108500149       15.23179138019964
H            2.69653878471264       11.59192186329346       10.04441814003507
H            1.96001734728667       13.51393159155522       11.55039800547129
H           -1.09074407614256       10.36935599255291       13.74197745205446
H           -1.00463426775598       12.72407919286986       14.51060602657070
H            0.54129997147849       14.29376777862991       13.40019178130708
H           -2.87750695895704        8.90634644221019       10.55001628224477
H           -1.84106293472552       16.01378973032087       -4.01085289675954
H           -3.53471327413151        7.26271971951816       15.03027191005285
H            0.67327684344111        7.65934767288864       14.46774510381463
H           -5.22375833876378        1.96574731743554        4.47062683791926
H           -4.28682300974933       -1.75568978805664        0.62566049669431
H           -6.73751558215970       -1.94868581849819        0.30986328299296
H           -8.23924570178393       -0.56446343129464        1.69394469950311
H           -7.29526643219822        0.98749286862783        3.35025529493505
C            0.68495753988296        2.08897277945580        3.72526253446551
C           -1.63247023012485       -3.57466817989407        0.66116812118914
C           -1.42931175953125       -3.00473496020105       -0.58954908747641
C           -0.77393881780270       16.25944171110877       -2.16580128505091
C            8.45466317347271        4.73604792681415        3.36610677674598
C           -3.57270657593891        7.50196189785247       -0.31949058598460
C           -3.13161973259326        6.93661293784067        0.89800812606466
C           -2.85486371319787        7.79526851166919        1.96795651451735
C           -3.03744515819647        9.14970071307435        1.86293313219385
C           -3.50022408767040        9.71412729978394        0.67641771637901
C           -3.75339547949611        8.86729340522629       -0.40108460245020
C           -2.96092887480841        5.46517607637663        1.06790621199492
C           -3.86524899299294        6.65818455637815       -1.51064084794494
C           -1.65185634623245       15.61245424302347       -3.02664175666481
C           -2.28107700524597       14.46996373916710       -2.60757595321963
C            0.23523172756151        1.02704105633493        2.94384502298167
C           -1.03864210625259       14.01020367308480        0.78269961390387
C            5.84256507429760        6.95973406686048        9.01534732479218
C            4.66556269096102        7.76736591875993        8.59268701962678
C            4.39309795643325        8.02187314994545        7.22976935063656
C            3.25484674842782        8.76988532304946        6.90795388117081
C            2.43603120981115        9.28012741730720        7.88167409251435
C            2.71253957671543        9.06037833181066        9.22918848895173
C            3.83035061219241        8.29486187537049        9.55586657358268
C            5.28074163849060        7.52152501290052        6.14122143304630
C            6.55407090178867        8.08329784342108        5.89712834469938
C            7.34613622002790        7.54880373659956        4.90186399204536
C            6.92619875224251        6.47763573421604        4.11535513147799
C            5.65730375068516        5.95039508037647        4.34455461406707
C            4.85490100374935        6.46321209149981        5.33048549442443
C            7.06930014455473        9.22687720320354        6.69915006667739
C           -0.54094829408243       15.75552136572985       -0.91343307366240
C           -1.19511758094168       14.58435302307918       -0.50161132987163
C           -4.06682040849385        4.59187423583022        1.17191316016388
C           -3.84456414191004        3.23491104707307        1.28459925109533
C           -2.56048314538597        2.69408818851748        1.31432473723822
C           -1.47682146965959        3.56639479319035        1.24105942013154
C            3.59332840110698        9.46758563597640        0.46170706970479
C            4.58382891219886        9.20635118444506       -0.51158713058688
C            5.82695013780593        8.76682318970003       -0.10555709046784
C            6.13825725444163        8.56076126286326        1.23715646557431
C            5.14596437279126        8.79487166857881        2.18642605552916
C            3.90417079791173        9.23314034506569        1.80597456302698
C            4.32285159975206        9.40025736975757       -1.96448464446371
C           -1.66588873214620       -2.58562829861716        5.68753387303783
C            1.98482326198388        1.50473986089258        1.33078307871482
C            1.99816242579813       10.96372066470260       10.57094882573387
C            1.27192346057812       12.83860481143665       12.02970950005540
C            1.20062399427088       11.50172228543922       11.60921504439600
C            2.64665477364725        1.16291704859100        0.04180262776050
C           -0.44365916703969       11.08505547403183       13.26749928400459
C           -0.38762218977456       12.38654247030058       13.69151928931007
C            0.48263558610513       13.26887857959071       13.06339674056889
C           -1.76604589044651       -1.56335018264636        4.73145650459940
C            0.78178319641787       11.72748327730568       -0.69858470817440
C            0.89984824878565        0.76159182883114        1.74798476656593
C           -0.31626869601870       10.87041261642601       -0.65375117473276
C            1.13288157904055        9.13790256878423        0.16190201966078
C           -1.67412265861021        4.91783878871617        1.12453550058845
C           -5.46637813020098        5.09866483801762        1.14498992708737
C            1.76374256229925        2.83793258263743        3.33255287274516
C            1.96698802533474        6.60522796489561       11.64945890552262
C            3.52336448390270        6.92380296749725       13.55889852594150
C            2.55281551995480        7.39952872977458       12.66402645781421
C            2.45149044376888        2.56056463031595        2.14563355042312
C            2.61067908951841        9.50873775437684       13.74792615304219
C            3.55801272694946        9.06151950213649       14.63076812900660
C            4.01531430427251        7.75328772288806       14.53180008664759
C           -2.76261190908831       -3.35282280515830        5.97948682814994
C           -3.97048004228278       -3.11851171147273        5.33408153730355
C           -2.69074057785701        7.51102878574374       14.40311583521749
C           -0.67963908561014       -0.74141920577366        4.34715577694323
C            3.17497446898150       12.28742904741823       -0.40581244502114
C            2.04660450774979       11.31931516122070       -0.32835062604077
C            2.24426461369905        9.98579880490373        0.09485746018466
C           -0.11600323154461        9.56652312072940       -0.20610638738879
C           -1.94160495199390       -2.76665009887887        1.72341394405053
C           -1.40085293501985        7.39056017147447       14.90516311984242
C           -1.85294352109115       -0.83731617432799        0.34618929891856
C           10.24868559840013        7.85937819426089       -0.57151616373690
C            3.48001912510854        4.68824379313535        1.32936128922693
C            8.33357375297285        6.61788889586653       -1.21806591332476
C            8.68239397534805        6.79970363052997       -2.56506802160711
C            7.20442348119052        5.87668335098850       -0.79488828973098
C            4.55053998599087        5.45305817512157        0.94471026813283
C           -6.64600165733239        0.39126535269741        2.73199369226778
C           10.60497244981539        8.04698353781252       -1.88099197650529
C            5.84482674463748        4.94037365637817        0.99587312294527
C           -3.91418643549463       11.11846712492210       -3.99794498665515
C           -3.35755474921091       11.41112235505699       -2.74350109316669
C           -0.68924759607844       13.04520284684708        7.31267680241687
C           -0.85502390628476       11.57587835094704        7.48557479534431
C           -1.16246120563718       10.73249308502120        6.39437606683508
C           -1.28243243759908        9.35814631581564        6.62983789830086
C           -1.14382339489292        8.83402479241190        7.88881538973307
C           -2.09296392789732       10.93817656793777       -2.31852836231372
C           -0.87017501463531        9.66054467397938        8.97630028578569
C            9.81045994826141        7.50790827899153       -2.88524810616781
C           10.92770087106146        2.61717372373709        1.57280684458313
C           -1.90646912135662        8.78456397060994       10.99928119495571
C           -5.25467903661021        0.48650073295373        2.88776350802167
C           -4.96953156098308       -1.15300852990193        1.19730590692577
C           -6.32523932199947       -1.25919808119708        1.03109307375583
C           -7.16870280621026       -0.47736098416253        1.81065221356830
C           11.86768765919996        9.02779624792776        3.31928989052110
C           12.16415686498322        7.68653695579871        3.11066054301479
C           -1.79131406137537        8.28984074087041       12.32049756781882
C           11.19584198150501        6.85621296028500        2.61090865048592
C            9.63958902945143        8.64404445663627        2.51859534637965
C           10.61847513010293        9.50976187159349        3.02987277767547
C            8.33386177943827        9.06036920720489        2.16484057625068
C           -2.89269418805036        7.95442225965365       13.12277405965922
C            5.21938796078908        1.47105998681614        2.34798090585366
C           10.30154282587793        4.48771140524024        0.23941621113281
C           11.04203998688651        3.34568507062241        0.39528235263921
C            9.33036405297064        4.21097350862373        2.38585670250401
C           10.08054243961550        3.03844418056072        2.56348566888351
C           -0.72421478892706       11.02702646032005        8.74463469148644
C           -2.51707522956865       11.99815176709762        4.65866075224791
C            0.36302946289766        6.34652810951438        9.83479076582265
C           -0.91223640580205        5.82034839914814       10.03245399090474
C           -2.01068346623132        0.56686555933450        0.26342697535713
C           -1.53074068087037        2.39633811641399        7.07597155364844
C           -2.12207844948004        1.61800013282996        6.10232328541995
C           -2.60877317169404        2.16017883123820        4.91429138325725
C           -2.47335867634408        3.53184219191466        4.71236046826271
C            1.02016907266716        6.05012393236087        8.64278692935707
C           -1.89240689467682        4.32491089038032        5.66753953328178
C           -5.09824256772508       13.06868245670103        0.99762524352215
C            3.64637437758150        3.37261734079246        1.77670486921731
C           -4.33684425860213       15.13068972303604        0.10565473861679
C           -5.44058740889441       15.78131781744252        0.59069571891146
C           -6.39827751619023       15.06223544794092        1.29506604668724
C           -1.53522489722232       -1.64883592011096       -0.75362161283973
C           -4.04939723235366       -2.11635047490952        4.40335360350140
C           -1.03645291622776        1.74891035392623        8.32206967932605
C           -1.36219953859277       11.26701832610151        5.01682348576712
C            0.43103477283744        5.24720719429119        7.70091574118773
C           -1.52624182610831        5.01362843322299        9.09672891885102
C           -2.62358014146241       12.50419872344919        3.37958030471002
C           -1.63299649853316       12.30689868795264        2.41936895523951
C           -0.51197837778678       11.55983579600898        2.77407066307695
C           -0.38352901339137       11.05028993436854        4.04010582745545
C           -3.61534232096940       12.24922767771383        5.63191068848008
C            6.01991793057655        3.63964589168794        1.46458634810887
C           -5.25877945550623       12.73199605855851       -2.22615385904821
C           -0.83857280728855        4.69458234663251        7.90435067224243
C           -5.81773919964333       12.45721488688766       -3.44636753575207
C           -4.62879528219360        1.33462171766059        3.83243173656684
C           -0.33773840934058        7.72197957771626       14.10718056297060
C            4.95775398742117        2.85332026709882        1.86090888273115
C           -4.86209391342600       11.68018239620091        1.13848933400418
C           -6.23526803304836       13.71795561706659        1.50233977062640
C           -2.88965192231204        4.48500646532208        9.37614917140430
C           -5.13317670420144       11.64204873489638       -4.33927005715077
C           -1.42517789628529        3.79078361636454        6.87377122945781
N           -0.54038436641349        8.15752695035347       12.85375284809400
N           -0.83082274399882        9.13856619779379       10.30311398020741
N           -2.97171456390462       -1.36827351464048        4.11902797768518
N            1.92803225592359        9.67593017685221       10.24901874615688
N           -2.04618075084636       -1.43869799118533        1.55768501284750
N            9.47379600663886        4.89763605660045        1.21342031481920
N            7.80841953192465        5.88043854659891        3.16695530445530
N           -4.46175083247573       -0.30176994038604        2.10250200868930
N            9.97366518335327        7.33316892345607        2.32688480944513
N            7.46284572969716        8.20921313342045        1.63217929694842
N            0.33288823938181       10.66731399541796       12.25541157836985
N            9.14336450594685        7.16329450665862       -0.26230008453095
N           -3.30720628420529        1.34588545044717        3.97447325925668
N            6.95101479598860        5.68956628574789        0.49649942747618
N           -4.06323724458335       12.21827053518773       -1.89657034696377
N           -3.79420306576346       11.10724672530933        0.59234238973302
N           -4.18208149298061       13.81298504040169        0.30956047775840
N           -1.72522879421415       12.92930693888531        1.13936527331809
N           -2.05099255010657       13.98065580308339       -1.37895684901016
N           -0.81712027902649        0.17714612992094        3.39621430286527
N            1.01096303422603        7.09125803450521       10.86420904908922
N            2.13024492401317        8.69199844953546       12.79714048226384
N           -1.58906329624758       11.29165507101408       -1.14039238695599
N           -2.36554621094862        1.28130308862756        1.32669273463792
Fe          -2.65112456803354       -0.02999164215506        2.74927077552389
Fe          -2.88965435002018       12.54037062098112       -0.38328512267948
Fe           8.44642533732556        6.53021150107355        1.43596857812023
Fe           0.67242872284114        8.89816877044249       11.53098303394353
